REMARK  4 active torsions:
REMARK  status: ('A' for Active; 'I' for Inactive)
REMARK    1  A    between atoms: C4_4  and  O1_10 
REMARK    2  A    between atoms: O1_10  and  C9_11 
REMARK    3  A    between atoms: C9_11  and  C10_12 
REMARK       I    between atoms: C10_12  and  N1_14 
REMARK    4  A    between atoms: N1_14  and  C11_15 
ROOT
ATOM      1  C10 <0> d          -4.783   0.890   0.028  0.00  0.00     0.246 C 
ATOM      2  O2  <0> d          -4.609  -0.310   0.012  0.00  0.00    -0.271 OA
ATOM      3  N1  <0> d          -6.035   1.389   0.038  0.00  0.00    -0.325 N 
ATOM      4  H11 <0> d          -6.175   2.346   0.119  0.00  0.00     0.169 HD
ENDROOT
BRANCH   1   5
ATOM      5  C9  <0> d          -3.600   1.823   0.036  0.00  0.00     0.278 C 
BRANCH   5   6
ATOM      6  O1  <0> d          -2.392   1.060   0.022  0.00  0.00    -0.342 OA
BRANCH   6   7
ATOM      7  C4  <0> d          -1.223   1.754   0.027  0.00  0.00     0.070 A 
ATOM      8  C3  <0> d          -0.013   1.077   0.014  0.00  0.00     0.045 A 
ATOM      9  C2  <0> d           1.174   1.784   0.014  0.00  0.00    -0.037 A 
ATOM     10  C1  <0> d           2.489   1.049  -0.007  0.00  0.00     0.050 C 
ATOM     11  C7  <0> d           1.156   3.167   0.032  0.00  0.00     0.046 A 
ATOM     12  C6  <0> d          -0.051   3.845   0.051  0.00  0.00    -0.037 A 
ATOM     13 Cl1  <0> d           2.648   4.054   0.031  0.00  0.00    -0.083 Cl
ATOM     14  C5  <0> d          -1.239   3.141   0.051  0.00  0.00     0.045 A 
ATOM     15  C8  <0> d          -0.068   5.352   0.071  0.00  0.00     0.050 C 
ENDBRANCH   6   7
ENDBRANCH   5   6
ENDBRANCH   1   5
BRANCH   3  16
ATOM     16  C11 <0> d          -7.134   0.527  -0.067  0.00  0.00     0.037 A 
ATOM     17  C16 <0> d          -7.088  -0.731   0.517  0.00  0.00     0.069 A 
ATOM     18  C15 <0> d          -8.175  -1.583   0.413  0.00  0.00     0.107 A 
ATOM     19  C14 <0> d          -9.313  -1.175  -0.278  0.00  0.00     0.105 A 
ATOM     20  O3  <0> d          -8.381  -2.847   0.887  0.00  0.00    -0.323 OA
ATOM     21  C13 <0> d          -9.355   0.082  -0.859  0.00  0.00     0.042 A 
ATOM     22  O4  <0> d         -10.232  -2.184  -0.238  0.00  0.00    -0.323 OA
ATOM     23  C12 <0> d          -8.272   0.933  -0.751  0.00  0.00     0.032 A 
ATOM     24  C17 <0> d          -9.805  -3.051   0.830  0.00  0.00     0.352 C 
ENDBRANCH   3  16
TORSDOF 4
